Version 4
SHEET 1 1272 968
WIRE -176 -112 -304 -112
WIRE 32 -112 -176 -112
WIRE 256 -112 32 -112
WIRE 768 -112 256 -112
WIRE 1216 -112 768 -112
WIRE 256 -80 256 -112
WIRE 1216 -80 1216 -112
WIRE 32 -48 32 -112
WIRE -176 16 -176 -112
WIRE -128 16 -176 16
WIRE 256 16 256 -16
WIRE 256 16 192 16
WIRE 256 32 256 16
WIRE 768 32 768 -112
WIRE 1216 32 1216 0
WIRE -128 112 -784 112
WIRE 496 112 192 112
WIRE 720 112 576 112
WIRE 768 176 768 128
WIRE 912 176 768 176
WIRE 1088 176 992 176
WIRE 1216 176 1088 176
WIRE 1088 192 1088 176
WIRE 1216 192 1216 176
WIRE -304 208 -304 -112
WIRE -256 208 -304 208
WIRE -128 208 -176 208
WIRE 256 208 256 96
WIRE 256 208 192 208
WIRE 768 208 768 176
WIRE 768 208 256 208
WIRE 768 224 768 208
WIRE 1088 288 1088 256
WIRE 1216 288 1216 272
WIRE -128 304 -656 304
WIRE 496 304 192 304
WIRE 720 304 576 304
WIRE -656 320 -656 304
WIRE 768 336 768 320
WIRE -256 400 -304 400
WIRE -128 400 -176 400
WIRE 240 400 192 400
WIRE -784 464 -784 112
WIRE 32 496 32 464
FLAG 1216 32 0
FLAG 768 336 0
FLAG 1088 288 0
FLAG 1216 288 0
FLAG 32 496 0
FLAG 240 400 0
FLAG 1216 -112 IN
FLAG 1216 176 OUT
FLAG -304 400 0
FLAG -784 544 0
FLAG -656 400 0
SYMBOL voltage 1216 -96 R0
WINDOW 3 21 91 Left 2
WINDOW 123 0 0 Left 0
WINDOW 39 0 0 Left 0
SYMATTR Value 12
SYMATTR InstName V1
SYMBOL nmos 720 32 R0
SYMATTR InstName Q1
SYMATTR Value BSC090N03LS
SYMBOL nmos 720 224 R0
SYMATTR InstName Q2
SYMATTR Value BSC090N03LS
SYMBOL ind 896 192 R270
WINDOW 0 32 56 VTop 2
WINDOW 3 5 56 VBottom 2
SYMATTR InstName L1
SYMATTR Value 100n
SYMATTR SpiceLine Rser=1m
SYMBOL cap 1072 192 R0
SYMATTR InstName C2
SYMATTR Value 40µ
SYMATTR SpiceLine Rser=10m
SYMBOL res 1200 176 R0
SYMATTR InstName R3
SYMATTR Value 0.1
SYMBOL res -160 192 R90
WINDOW 0 0 56 VBottom 2
WINDOW 3 32 56 VTop 2
SYMATTR InstName R1
SYMATTR Value 51.1k
SYMBOL cap 240 32 R0
SYMATTR InstName C1
SYMATTR Value 1µ
SYMBOL res -160 384 R90
WINDOW 0 0 56 VBottom 2
WINDOW 3 32 56 VTop 2
SYMATTR InstName R2
SYMATTR Value 1k
SYMBOL schottky 240 -80 R0
SYMATTR InstName D1
SYMATTR Value RSX205L-30
SYMATTR Description Diode
SYMATTR Type diode
SYMBOL LTC7061 32 208 R0
SYMATTR InstName U1
SYMBOL res 592 96 R90
WINDOW 0 0 56 VBottom 2
WINDOW 3 32 56 VTop 2
SYMATTR InstName R4
SYMATTR Value 15
SYMBOL res 592 288 R90
WINDOW 0 0 56 VBottom 2
WINDOW 3 32 56 VTop 2
SYMATTR InstName R5
SYMATTR Value 15
SYMBOL voltage -656 304 R0
WINDOW 123 0 0 Left 0
WINDOW 39 0 0 Left 0
SYMATTR InstName V2
SYMATTR Value PULSE(0 3 0 0 0 3m 10m)
SYMBOL voltage -784 448 R0
WINDOW 123 0 0 Left 0
WINDOW 39 0 0 Left 0
SYMATTR InstName V3
SYMATTR Value PULSE(0 3 3m 0 0 3m 10m)
TEXT 120 496 Left 2 !.tran 50m startup
