Version 4
SHEET 1 1224 2264
WIRE -608 -192 -880 -192
WIRE -512 -192 -608 -192
WIRE -512 -112 -512 -192
WIRE 208 0 160 0
WIRE 160 96 160 0
WIRE -880 128 -880 -192
WIRE -832 128 -880 128
WIRE -512 128 -512 -48
WIRE -512 128 -672 128
WIRE -832 176 -1072 176
WIRE -240 176 -672 176
WIRE 112 176 -160 176
WIRE -512 192 -512 128
WIRE -976 224 -1792 224
WIRE -832 224 -976 224
WIRE -592 224 -672 224
WIRE -1072 272 -1072 176
WIRE -976 272 -976 224
WIRE -640 272 -672 272
WIRE -592 272 -592 224
WIRE -512 272 -512 256
WIRE -512 272 -592 272
WIRE 160 272 160 192
WIRE 160 272 -512 272
WIRE 400 272 160 272
WIRE 448 272 400 272
WIRE 160 336 160 272
WIRE -1072 400 -1072 352
WIRE -976 400 -976 352
WIRE -752 400 -752 368
WIRE 448 400 448 352
WIRE 560 400 448 400
WIRE -640 416 -640 272
WIRE -272 416 -640 416
WIRE 112 416 -192 416
WIRE -1792 448 -1792 224
WIRE 160 496 160 432
WIRE -608 624 -880 624
WIRE -512 624 -608 624
WIRE -512 704 -512 624
WIRE 208 816 160 816
WIRE 160 912 160 816
WIRE -880 944 -880 624
WIRE -832 944 -880 944
WIRE -512 944 -512 768
WIRE -512 944 -672 944
WIRE -832 992 -1072 992
WIRE -240 992 -672 992
WIRE 112 992 -160 992
WIRE -512 1008 -512 944
WIRE -976 1040 -1808 1040
WIRE -832 1040 -976 1040
WIRE -592 1040 -672 1040
WIRE -1072 1088 -1072 992
WIRE -976 1088 -976 1040
WIRE -640 1088 -672 1088
WIRE -592 1088 -592 1040
WIRE -512 1088 -512 1072
WIRE -512 1088 -592 1088
WIRE 160 1088 160 1008
WIRE 160 1088 -512 1088
WIRE 400 1088 160 1088
WIRE 448 1088 400 1088
WIRE 160 1152 160 1088
WIRE -1072 1216 -1072 1168
WIRE -976 1216 -976 1168
WIRE -752 1216 -752 1184
WIRE -640 1232 -640 1088
WIRE -272 1232 -640 1232
WIRE 112 1232 -192 1232
WIRE 448 1232 448 1168
WIRE 560 1232 560 400
WIRE 560 1232 448 1232
WIRE 160 1312 160 1248
WIRE -1808 1328 -1808 1040
WIRE -576 1536 -848 1536
WIRE -480 1536 -576 1536
WIRE -480 1616 -480 1536
WIRE 240 1728 192 1728
WIRE 192 1824 192 1728
WIRE -848 1856 -848 1536
WIRE -800 1856 -848 1856
WIRE -480 1856 -480 1680
WIRE -480 1856 -640 1856
WIRE -800 1904 -1040 1904
WIRE -208 1904 -640 1904
WIRE 144 1904 -128 1904
WIRE -480 1920 -480 1856
WIRE -944 1952 -1840 1952
WIRE -800 1952 -944 1952
WIRE -560 1952 -640 1952
WIRE -1040 2000 -1040 1904
WIRE -944 2000 -944 1952
WIRE -608 2000 -640 2000
WIRE -560 2000 -560 1952
WIRE -480 2000 -480 1984
WIRE -480 2000 -560 2000
WIRE 192 2000 192 1920
WIRE 192 2000 -480 2000
WIRE 432 2000 192 2000
WIRE 480 2000 432 2000
WIRE 192 2064 192 2000
WIRE -1840 2112 -1840 1952
WIRE -1040 2128 -1040 2080
WIRE -944 2128 -944 2080
WIRE -720 2128 -720 2096
WIRE -608 2144 -608 2000
WIRE -240 2144 -608 2144
WIRE 144 2144 -160 2144
WIRE 480 2144 480 2080
WIRE 560 2144 560 1232
WIRE 560 2144 480 2144
WIRE 192 2224 192 2160
FLAG 400 272 A1
FLAG 160 496 0
FLAG -608 -192 15v
FLAG 208 0 VCC
FLAG 400 1088 A2
FLAG 160 1312 0
FLAG 208 816 VCC
FLAG 432 2000 A3
FLAG 192 2224 0
FLAG 240 1728 VCC
FLAG -1840 -192 0
FLAG -1712 -192 0
FLAG -1712 -272 15V
FLAG -1840 -272 VCC
FLAG -752 400 0
FLAG -608 624 15v
FLAG -752 1216 0
FLAG -576 1536 15v
FLAG -720 2128 0
FLAG -976 400 0
FLAG -1072 400 0
FLAG -976 1216 0
FLAG -1072 1216 0
FLAG -944 2128 0
FLAG -1040 2128 0
FLAG -1792 528 0
FLAG -1808 1408 0
FLAG -1840 2192 0
SYMBOL ind 432 256 R0
SYMATTR InstName L1
SYMATTR Value 7µ
SYMATTR SpiceLine Rser=0.05
SYMBOL res -144 160 R90
WINDOW 0 0 56 VBottom 2
WINDOW 3 32 56 VTop 2
SYMATTR InstName R1
SYMATTR Value 22
SYMBOL res -176 400 R90
WINDOW 0 0 56 VBottom 2
WINDOW 3 32 56 VTop 2
SYMATTR InstName R2
SYMATTR Value 22
SYMBOL cap -528 192 R0
SYMATTR InstName C1
SYMATTR Value 1µ
SYMBOL res -144 976 R90
WINDOW 0 0 56 VBottom 2
WINDOW 3 32 56 VTop 2
SYMATTR InstName R3
SYMATTR Value 22
SYMBOL res -176 1216 R90
WINDOW 0 0 56 VBottom 2
WINDOW 3 32 56 VTop 2
SYMATTR InstName R4
SYMATTR Value 22
SYMBOL res -112 1888 R90
WINDOW 0 0 56 VBottom 2
WINDOW 3 32 56 VTop 2
SYMATTR InstName R5
SYMATTR Value 22
SYMBOL res -144 2128 R90
WINDOW 0 0 56 VBottom 2
WINDOW 3 32 56 VTop 2
SYMATTR InstName R6
SYMATTR Value 22
SYMBOL voltage -1712 -288 R0
WINDOW 123 0 0 Left 0
WINDOW 39 0 0 Left 0
SYMATTR InstName V1
SYMATTR Value 12
SYMBOL voltage -1840 -288 R0
WINDOW 123 0 0 Left 0
WINDOW 39 0 0 Left 0
SYMATTR InstName V2
SYMATTR Value 15
SYMBOL InfineonNMOS\\BSC070N10LS5_L0 112 96 R0
SYMATTR InstName U4
SYMBOL InfineonNMOS\\BSC070N10LS5_L0 112 336 R0
SYMATTR InstName U6
SYMBOL InfineonNMOS\\BSC070N10LS5_L0 144 1824 R0
SYMATTR InstName U7
SYMBOL InfineonNMOS\\BSC070N10LS5_L0 144 2064 R0
SYMATTR InstName U8
SYMBOL InfineonNMOS\\BSC070N10LS5_L0 112 912 R0
SYMATTR InstName U5
SYMBOL InfineonNMOS\\BSC070N10LS5_L0 112 1152 R0
SYMATTR InstName U9
SYMBOL ZZZ\\GATEDRV\\UCC27212 -752 224 R0
SYMATTR InstName U11
SYMBOL cap -528 1008 R0
SYMATTR InstName C2
SYMATTR Value 1µ
SYMBOL ZZZ\\GATEDRV\\UCC27212 -752 1040 R0
SYMATTR InstName U12
SYMBOL cap -496 1920 R0
SYMATTR InstName C3
SYMATTR Value 1µ
SYMBOL ZZZ\\GATEDRV\\UCC27212 -720 1952 R0
SYMATTR InstName U13
SYMBOL res -992 256 R0
SYMATTR InstName R7
SYMATTR Value 47k
SYMBOL res -1088 256 R0
SYMATTR InstName R8
SYMATTR Value 47k
SYMBOL res -992 1072 R0
SYMATTR InstName R9
SYMATTR Value 47k
SYMBOL res -1088 1072 R0
SYMATTR InstName R10
SYMATTR Value 47k
SYMBOL res -960 1984 R0
SYMATTR InstName R11
SYMATTR Value 47k
SYMBOL res -1056 1984 R0
SYMATTR InstName R12
SYMATTR Value 47k
SYMBOL ind 432 1072 R0
SYMATTR InstName L2
SYMATTR Value 7µ
SYMATTR SpiceLine Rser=0.05
SYMBOL ind 464 1984 R0
SYMATTR InstName L3
SYMATTR Value 7µ
SYMATTR SpiceLine Rser=0.05
SYMBOL voltage -1792 432 R0
WINDOW 123 0 0 Left 0
WINDOW 39 0 0 Left 0
SYMATTR InstName V3
SYMATTR Value PULSE(0 3 0 {0.1/Flow} {0.1/Flow} {0.4/Flow} {1/Flow})
SYMBOL voltage -1808 1312 R0
WINDOW 123 0 0 Left 0
WINDOW 39 0 0 Left 0
SYMATTR InstName V4
SYMATTR Value PULSE(0 3 {Flow/3} {0.1/Flow} {0.1/Flow} {0.4/Flow} {1/Flow})
SYMBOL voltage -1840 2096 R0
WINDOW 123 0 0 Left 0
WINDOW 39 0 0 Left 0
SYMATTR InstName V5
SYMATTR Value PULSE(0 3 {2*Flow/3} {0.1/Flow} {0.1/Flow} {0.4/Flow} {1/Flow})
TEXT -1512 -320 Left 2 !.param Flow=100
TEXT -1504 -368 Left 2 !.tran 1
